units(length='cm', time='s', quantity='mol', act_energy='kcal/mol')

ideal_gas(name='gas',
          elements="H D T C Ci O Oi N Ne Ar He Si S F Cl Br I X",
          species="""N2          Ar          He          Ne
                     butane(1)   O2(2)       CH(3)       C2H(4)
                     O(5)        CO(6)       CO2(7)      H2O(8)
                     CH2O(9)     CH4(10)     C2H4(11)    C3H6(12)
                     H2(13)      H(14)       OH(15)      HO2(16)
                     H2O2(17)    CH3(18)     HCO(19)     CH3CO(20)
                     CH2CHO(21)  C2H3(22)    CH2(23)     CH2CO(24)
                     C2H2(25)    HCCO(27)    CH3OH(30)   CH3O(31)
                     C2H6(32)    C2H5(33)    CH2OH(34)   CH3CHO(35)
                     OCHO(38)    HOCHO(40)   CH3O2(45)   CH3O2H(46)
                     C2H5O2(47)  C2H6O2(48)  C2H5O(49)   C2H4O(51)
                     C2H3O3(56)  C2H3OH(58)  C2H5O(59)   C3H5O(70)
                     C3H5O2(71)  C3H5O3(72)  C3H6O3(73)  C3H4O(74)
                     C2H3CO(75)  NC3H7(92)   IC3H7(93)   C3H5-A(94)
                     C3H7O2(95)  C3H7O2(97)  S(114)      C3H5O(129)
                     C3H5O(131)  C3H6O(133)  C3H6O(135)  PC4H9(182)
                     SC4H9(183)  S(184)      S(186)      S(187)
                     C4H8(188)   C4H8(189)   C4H7(190)   C4H7(191)
                     C4H7(192)   C4H6(194)   C4H9O(198)  S(200)
                     C4H7O(202)  C4H8O(214)  C4H9O(217)  S(219)
                     S(220)      S(223)      S(225)      S(229)
                     S(238)      S(244)      S(252)      S(256)
                     C2H4(687)   C3H6(688)   C3H6(689)   O2(694)
                     C2H4O(703)  C4H8(748)   C4H8O(766)  C4H8(776)
                     S(777)      S(787)      S(818)      S(911)
                     S(917)      S(920)      S(928)      CH2O2(988)
                     S(993)      C4H6(2530)  C4H6(2534)  C3H5(3498)
                     S(3513)     S(4213)     S(4243)     S(4244)
                     C4H7(4343)  S(4407)     C4H6(4880)  S(5093)
                     S(5151)     S(5161)     S(5167)     S(5425)
                     S(5659)     S(5753)     S(5761)     S(5951)
                     S(9122)     S(9510)     S(11705)    S(11851)
                     S(12103)    S(13050)""",
          reactions='all',
          transport='Mix',
          initial_state=state(temperature=300.0, pressure=OneAtm))

#-------------------------------------------------------------------------------
# Element data
#-------------------------------------------------------------------------------

element(symbol='Ci', atomic_mass=13.003)
element(symbol='D', atomic_mass=2.014)
element(symbol='Oi', atomic_mass=17.999)
element(symbol='T', atomic_mass=3.016)
element(symbol='X', atomic_mass=195.083)
#-------------------------------------------------------------------------------
# Species data
#-------------------------------------------------------------------------------

species(name='N2',
        atoms='N:2',
        thermo=(NASA([100.00, 1817.05],
                     [ 3.61262543E+00, -1.00892648E-03,  2.49897620E-06,
                      -1.43374896E-09,  2.58633809E-13, -1.05110286E+03,
                       2.65270528E+00]),
                NASA([1817.05, 5000.00],
                     [ 2.97592894E+00,  1.64137380E-03, -7.19704298E-07,
                       1.25374055E-10, -7.91499564E-15, -1.02585898E+03,
                       5.53740798E+00])),
        transport=gas_transport(geom='linear',
                                diam=3.621,
                                well_depth=97.53,
                                polar=1.76,
                                rot_relax=4.0))

species(name='Ar',
        atoms='Ar:1',
        thermo=(NASA([100.00, 4762.74],
                     [ 2.50000000E+00, -1.87769028E-11,  2.35957382E-14,
                      -9.62803665E-18,  1.20727680E-21, -7.45000000E+02,
                       4.36630362E+00]),
                NASA([4762.74, 5000.00],
                     [ 2.87626762E+00, -3.12580154E-04,  9.73654773E-08,
                      -1.34776059E-11,  6.99515521E-16, -1.10730235E+03,
                       1.95965953E+00])),
        transport=gas_transport(geom='atom',
                                diam=3.33,
                                well_depth=136.501))

species(name='He',
        atoms='He:1',
        thermo=(NASA([100.00, 4762.74],
                     [ 2.50000000E+00, -1.87769028E-11,  2.35957382E-14,
                      -9.62803665E-18,  1.20727680E-21, -7.45000000E+02,
                       9.14221516E-01]),
                NASA([4762.74, 5000.00],
                     [ 2.87626762E+00, -3.12580154E-04,  9.73654773E-08,
                      -1.34776059E-11,  6.99515521E-16, -1.10730235E+03,
                      -1.49242258E+00])),
        transport=gas_transport(geom='atom',
                                diam=2.576,
                                well_depth=10.2))

species(name='Ne',
        atoms='Ne:1',
        thermo=(NASA([200.00, 1000.00],
                     [ 2.50000000E+00,  0.00000000E+00,  0.00000000E+00,
                       0.00000000E+00,  0.00000000E+00, -7.45375000E+02,
                       3.35532000E+00]),
                NASA([1000.00, 6000.00],
                     [ 2.50000000E+00,  0.00000000E+00,  0.00000000E+00,
                       0.00000000E+00,  0.00000000E+00, -7.45375000E+02,
                       3.35532000E+00])),
        transport=gas_transport(geom='atom',
                                diam=3.758,
                                well_depth=148.6))

species(name='butane(1)',
        atoms='C:4 H:10',
        thermo=(NASA([200.00, 1389.00],
                     [-4.02516000E-01,  4.79826000E-02, -2.65876000E-05,
                       7.07078000E-09, -6.98493000E-13, -1.68795000E+04,
                       2.63199000E+01]),
                NASA([1389.00, 5000.00],
                     [ 1.25232000E+01,  2.18667000E-02, -7.50126000E-06,
                       1.16671000E-09, -6.77697000E-14, -2.18476000E+04,
                      -4.46643000E+01])),
        transport=gas_transport(geom='nonlinear',
                                diam=5.415,
                                well_depth=348.415))

species(name='O2(2)',
        atoms='O:2',
        thermo=(NASA([100.00, 1087.71],
                     [ 3.53763685E+00, -1.22827511E-03,  5.36758628E-06,
                      -4.93128119E-09,  1.45955119E-12, -1.03799025E+03,
                       4.67179810E+00]),
                NASA([1087.71, 5000.00],
                     [ 3.16427277E+00,  1.69453633E-03, -8.00335204E-07,
                       1.59029939E-10, -1.14890928E-14, -1.04844563E+03,
                       6.08302729E+00])),
        transport=gas_transport(geom='linear',
                                diam=3.467,
                                well_depth=106.7))

species(name='CH(3)',
        atoms='C:1 H:1',
        thermo=(NASA([200.00, 1000.00],
                     [ 3.48976000E+00,  3.24322000E-04, -1.68998000E-06,
                       3.16284000E-09, -1.40618000E-12,  7.06126000E+04,
                       2.08428000E+00]),
                NASA([1000.00, 6000.00],
                     [ 2.52094000E+00,  1.76536000E-03, -4.61477000E-07,
                       5.92897000E-11, -3.34745000E-15,  7.09468000E+04,
                       7.40518000E+00])),
        transport=gas_transport(geom='linear',
                                diam=2.75,
                                well_depth=80.0))

species(name='C2H(4)',
        atoms='C:2 H:1',
        thermo=(NASA([200.00, 1000.00],
                     [ 2.89868000E+00,  1.32988000E-02, -2.80733000E-05,
                       2.89485000E-08, -1.07502000E-11,  6.70616000E+04,
                       6.18548000E+00]),
                NASA([1000.00, 6000.00],
                     [ 3.66270000E+00,  3.82492000E-03, -1.36633000E-06,
                       2.13455000E-10, -1.23217000E-14,  6.71684000E+04,
                       3.92206000E+00])),
        transport=gas_transport(geom='linear',
                                diam=4.1,
                                well_depth=209.001,
                                rot_relax=2.5))

species(name='O(5)',
        atoms='O:1',
        thermo=(NASA([100.00, 4762.74],
                     [ 2.50000000E+00, -1.87769028E-11,  2.35957382E-14,
                      -9.62803665E-18,  1.20727680E-21,  2.92267216E+04,
                       5.11106769E+00]),
                NASA([4762.74, 5000.00],
                     [ 2.87626762E+00, -3.12580154E-04,  9.73654773E-08,
                      -1.34776059E-11,  6.99515521E-16,  2.88644192E+04,
                       2.70442360E+00])),
        transport=gas_transport(geom='atom',
                                diam=2.75,
                                well_depth=80.0))

species(name='CO(6)',
        atoms='C:1 O:1',
        thermo=(NASA([100.00, 1669.93],
                     [ 3.59709686E+00, -1.02423974E-03,  2.83336836E-06,
                      -1.75825622E-09,  3.42588177E-13, -1.43431899E+04,
                       3.45822097E+00]),
                NASA([1669.93, 5000.00],
                     [ 2.92794761E+00,  1.81931831E-03, -8.35314334E-07,
                       1.51270400E-10, -9.88881494E-15, -1.42927037E+04,
                       6.51162022E+00])),
        transport=gas_transport(geom='linear',
                                diam=3.69,
                                well_depth=91.7,
                                polar=1.76,
                                rot_relax=4.0))

species(name='CO2(7)',
        atoms='C:1 O:2',
        thermo=(NASA([100.00, 988.19],
                     [ 3.27789791E+00,  2.75787976E-03,  7.12767589E-06,
                      -1.07852000E-08,  4.14216610E-12, -4.84756030E+04,
                       5.97857463E+00]),
                NASA([988.19, 5000.00],
                     [ 4.55073040E+00,  2.90725233E-03, -1.14641338E-06,
                       2.25793556E-10, -1.69522790E-14, -4.89860167E+04,
                      -1.45672026E+00])),
        transport=gas_transport(geom='linear',
                                diam=3.941,
                                well_depth=195.201))

species(name='H2O(8)',
        atoms='H:2 O:1',
        thermo=(NASA([100.00, 1281.44],
                     [ 3.99882008E+00, -5.54831766E-04,  2.76774416E-06,
                      -1.55665134E-09,  3.02330851E-13, -3.02745569E+04,
                      -3.08944935E-02]),
                NASA([1281.44, 5000.00],
                     [ 3.19560416E+00,  1.95239927E-03, -1.67117765E-07,
                      -2.97939568E-11,  4.45140086E-15, -3.00687024E+04,
                       4.04334241E+00])),
        transport=gas_transport(geom='nonlinear',
                                diam=2.641,
                                well_depth=809.102,
                                polar=1.76,
                                rot_relax=4.0))

species(name='CH2O(9)',
        atoms='C:1 H:2 O:1',
        thermo=(NASA([200.00, 1000.00],
                     [ 4.79372000E+00, -9.90833000E-03,  3.73220000E-05,
                      -3.79285000E-08,  1.31773000E-11, -1.43792000E+04,
                       6.02798000E-01]),
                NASA([1000.00, 6000.00],
                     [ 3.16953000E+00,  6.19321000E-03, -2.25056000E-06,
                       3.65976000E-10, -2.20149000E-14, -1.45487000E+04,
                       6.04208000E+00])),
        transport=gas_transport(geom='nonlinear',
                                diam=3.59,
                                well_depth=498.002,
                                rot_relax=2.0))

species(name='CH4(10)',
        atoms='C:1 H:4',
        thermo=(NASA([100.00, 1084.13],
                     [ 4.20541194E+00, -5.35553558E-03,  2.51121985E-05,
                      -2.13761265E-08,  5.97517614E-12, -1.01619432E+04,
                      -9.21267377E-01]),
                NASA([1084.13, 5000.00],
                     [ 9.08284759E-01,  1.14540544E-02, -4.57172059E-06,
                       8.29187562E-10, -5.66311530E-14, -9.71998278E+03,
                       1.39929866E+01])),
        transport=gas_transport(geom='nonlinear',
                                diam=3.746,
                                well_depth=141.4,
                                polar=2.6,
                                rot_relax=13.0))

species(name='C2H4(11)',
        atoms='C:2 H:4',
        thermo=(NASA([200.00, 1000.00],
                     [ 3.95920000E+00, -7.57051000E-03,  5.70990000E-05,
                      -6.91588000E-08,  2.69884000E-11,  5.08978000E+03,
                       4.09730000E+00]),
                NASA([1000.00, 6000.00],
                     [ 3.99183000E+00,  1.04834000E-02, -3.71721000E-06,
                       5.94628000E-10, -3.53630000E-14,  4.26866000E+03,
                      -2.69082000E-01])),
        transport=gas_transport(geom='nonlinear',
                                diam=3.971,
                                well_depth=280.801,
                                rot_relax=1.5))

species(name='C3H6(12)',
        atoms='C:3 H:6',
        thermo=(NASA([200.00, 1000.00],
                     [ 3.83464000E+00,  3.29079000E-03,  5.05228000E-05,
                      -6.66251000E-08,  2.63707000E-11,  7.88717000E+02,
                       7.53408000E+00]),
                NASA([1000.00, 6000.00],
                     [ 6.03870000E+00,  1.62964000E-02, -5.82131000E-06,
                       9.35937000E-10, -5.58603000E-14, -7.41715000E+02,
                      -8.43826000E+00])),
        transport=gas_transport(geom='nonlinear',
                                diam=4.982,
                                well_depth=266.801,
                                rot_relax=1.0))

species(name='H2(13)',
        atoms='H:2',
        thermo=(NASA([100.00, 1962.85],
                     [ 3.42253753E+00,  2.86648327E-04, -4.14667543E-07,
                       4.27545515E-10, -9.38112761E-14, -1.02978491E+03,
                      -3.86364800E+00]),
                NASA([1962.85, 5000.00],
                     [ 2.74217098E+00,  5.79561035E-04,  1.97192680E-07,
                      -6.41074329E-11,  4.95988421E-15, -5.52027985E+02,
                       4.14195865E-01])),
        transport=gas_transport(geom='linear',
                                diam=2.833,
                                well_depth=59.7))

species(name='H(14)',
        atoms='H:1',
        thermo=(NASA([100.00, 4762.74],
                     [ 2.50000000E+00, -1.87769028E-11,  2.35957382E-14,
                      -9.62803665E-18,  1.20727680E-21,  2.54727081E+04,
                      -4.59566260E-01]),
                NASA([4762.74, 5000.00],
                     [ 2.87626762E+00, -3.12580154E-04,  9.73654773E-08,
                      -1.34776059E-11,  6.99515521E-16,  2.51104058E+04,
                      -2.86621035E+00])),
        transport=gas_transport(geom='atom',
                                diam=2.05,
                                well_depth=145.0))

species(name='OH(15)',
        atoms='H:1 O:1',
        thermo=(NASA([100.00, 1005.26],
                     [ 3.48580083E+00,  1.33390756E-03, -4.70021880E-06,
                       5.64351291E-09, -2.06305753E-12,  3.41195681E+03,
                       1.99785890E+00]),
                NASA([1005.26, 5000.00],
                     [ 2.88223155E+00,  1.03872344E-03, -2.35672354E-07,
                       1.40277748E-11,  6.34181035E-16,  3.66956895E+03,
                       5.59065082E+00])),
        transport=gas_transport(geom='linear',
                                diam=2.75,
                                well_depth=80.0))

species(name='HO2(16)',
        atoms='H:1 O:2',
        thermo=(NASA([100.00, 923.90],
                     [ 4.02957127E+00, -2.63999181E-03,  1.52235521E-05,
                      -1.71678674E-08,  6.26771670E-12,  3.22676796E+02,
                       4.84423965E+00]),
                NASA([923.90, 5000.00],
                     [ 4.15129907E+00,  1.91151854E-03, -4.11308445E-07,
                       6.35038980E-11, -4.86453526E-15,  8.34343449E+01,
                       3.09359468E+00])),
        transport=gas_transport(geom='nonlinear',
                                diam=3.458,
                                well_depth=107.4,
                                rot_relax=1.0))

species(name='H2O2(17)',
        atoms='H:2 O:2',
        thermo=(NASA([100.00, 923.27],
                     [ 3.72867012E+00,  4.13377449E-03,  5.67497296E-06,
                      -1.01865650E-08,  4.28612035E-12, -1.76963959E+04,
                       5.35911567E+00]),
                NASA([923.27, 5000.00],
                     [ 4.95151843E+00,  3.54229706E-03, -1.01040651E-06,
                       1.61941782E-10, -1.10209389E-14, -1.81227942E+04,
                      -1.52912187E+00])),
        transport=gas_transport(geom='nonlinear',
                                diam=4.196,
                                well_depth=289.3))

species(name='CH3(18)',
        atoms='C:1 H:3',
        thermo=(NASA([200.00, 1000.00],
                     [ 3.65718000E+00,  2.12660000E-03,  5.45839000E-06,
                      -6.61810000E-09,  2.46571000E-12,  1.64227000E+04,
                       1.67354000E+00]),
                NASA([1000.00, 6000.00],
                     [ 2.97812000E+00,  5.79785000E-03, -1.97558000E-06,
                       3.07298000E-10, -1.79174000E-14,  1.65095000E+04,
                       4.72248000E+00])),
        transport=gas_transport(geom='nonlinear',
                                diam=3.8,
                                well_depth=144.001))

species(name='HCO(19)',
        atoms='C:1 H:1 O:1',
        thermo=(NASA([200.00, 1000.00],
                     [ 4.23755000E+00, -3.32075000E-03,  1.40030000E-05,
                      -1.34240000E-08,  4.37416000E-12,  3.87241000E+03,
                       3.30835000E+00]),
                NASA([1000.00, 6000.00],
                     [ 3.92002000E+00,  2.52279000E-03, -6.71004000E-07,
                       1.05616000E-10, -7.43798000E-15,  3.65343000E+03,
                       3.58077000E+00])),
        transport=gas_transport(geom='nonlinear',
                                diam=3.59,
                                well_depth=498.002))

species(name='CH3CO(20)',
        atoms='C:2 H:3 O:1',
        thermo=(NASA([200.00, 1000.00],
                     [ 4.03587000E+00,  8.77295000E-04,  3.07100000E-05,
                      -3.92476000E-08,  1.52969000E-11, -2.68207000E+03,
                       7.86177000E+00]),
                NASA([1000.00, 6000.00],
                     [ 5.31372000E+00,  9.17378000E-03, -3.32204000E-06,
                       5.39475000E-10, -3.24524000E-14, -3.64504000E+03,
                      -1.67576000E+00])),
        transport=gas_transport(geom='nonlinear',
                                diam=3.97,
                                well_depth=436.001,
                                rot_relax=2.0))

species(name='CH2CHO(21)',
        atoms='C:2 H:3 O:1',
        thermo=(NASA([200.00, 1000.00],
                     [ 2.66874000E+00,  9.62330000E-03,  1.60617000E-05,
                      -2.87682000E-08,  1.25030000E-11,  2.19438000E+02,
                       1.25694000E+01]),
                NASA([1000.00, 6000.00],
                     [ 5.91637000E+00,  8.84650000E-03, -3.14955000E-06,
                       5.05413000E-10, -3.01305000E-14, -1.04780000E+03,
                      -6.10650000E+00])),
        transport=gas_transport(geom='nonlinear',
                                diam=3.97,
                                well_depth=436.001,
                                rot_relax=2.0))

species(name='C2H3(22)',
        atoms='C:2 H:3',
        thermo=(NASA([200.00, 1000.00],
                     [ 3.36378000E+00,  2.65766000E-04,  2.79621000E-05,
                      -3.72987000E-08,  1.51590000E-11,  3.44750000E+04,
                       7.91510000E+00]),
                NASA([1000.00, 6000.00],
                     [ 4.15027000E+00,  7.54021000E-03, -2.62998000E-06,
                       4.15974000E-10, -2.45408000E-14,  3.38566000E+04,
                       1.72812000E+00])),
        transport=gas_transport(geom='nonlinear',
                                diam=4.1,
                                well_depth=209.001,
                                rot_relax=1.0))

species(name='CH2(23)',
        atoms='C:1 H:2',
        thermo=(NASA([100.00, 1104.64],
                     [ 4.01192379E+00, -1.54977857E-04,  3.26297595E-06,
                      -2.40421606E-09,  5.69496080E-13,  4.58676802E+04,
                       5.33200833E-01]),
                NASA([1104.64, 5000.00],
                     [ 3.14983347E+00,  2.96674332E-03, -9.76056282E-07,
                       1.54115386E-10, -9.50339024E-15,  4.60581392E+04,
                       4.77807889E+00])),
        transport=gas_transport(geom='nonlinear',
                                diam=3.8,
                                well_depth=144.001))

species(name='CH2CO(24)',
        atoms='C:2 H:2 O:1',
        thermo=(NASA([200.00, 1000.00],
                     [ 2.13241000E+00,  1.81319000E-02, -1.74093000E-05,
                       9.35336000E-09, -2.01725000E-12, -7.14809000E+03,
                       1.33808000E+01]),
                NASA([1000.00, 6000.00],
                     [ 5.75871000E+00,  6.35124000E-03, -2.25955000E-06,
                       3.62322000E-10, -2.15856000E-14, -8.08533000E+03,
                      -4.96490000E+00])),
        transport=gas_transport(geom='nonlinear',
                                diam=3.97,
                                well_depth=436.001,
                                rot_relax=2.0))

species(name='C2H2(25)',
        atoms='C:2 H:2',
        thermo=(NASA([200.00, 1000.00],
                     [ 8.08680000E-01,  2.33616000E-02, -3.55172000E-05,
                       2.80153000E-08, -8.50075000E-12,  2.64290000E+04,
                       1.39397000E+01]),
                NASA([1000.00, 6000.00],
                     [ 4.65878000E+00,  4.88397000E-03, -1.60829000E-06,
                       2.46975000E-10, -1.38606000E-14,  2.57594000E+04,
                      -3.99838000E+00])),
        transport=gas_transport(geom='linear',
                                diam=4.1,
                                well_depth=209.001,
                                rot_relax=2.5))

species(name='HCCO(27)',
        atoms='C:2 H:1 O:1',
        thermo=(NASA([200.00, 1000.00],
                     [ 1.87608000E+00,  2.21205000E-02, -3.58869000E-05,
                       3.05403000E-08, -1.01281000E-11,  2.01634000E+04,
                       1.36968000E+01]),
                NASA([1000.00, 6000.00],
                     [ 5.91479000E+00,  3.71409000E-03, -1.30137000E-06,
                       2.06473000E-10, -1.21477000E-14,  1.93596000E+04,
                      -5.50567000E+00])),
        transport=gas_transport(geom='nonlinear',
                                diam=2.5,
                                well_depth=150.001,
                                rot_relax=1.0))

species(name='CH3OH(30)',
        atoms='C:1 H:4 O:1',
        thermo=(NASA([200.00, 1000.00],
                     [ 5.65851000E+00, -1.62983000E-02,  6.91938000E-05,
                      -7.58373000E-08,  2.80428000E-11, -2.56120000E+04,
                      -8.97331000E-01]),
                NASA([1000.00, 6000.00],
                     [ 3.52727000E+00,  1.03179000E-02, -3.62893000E-06,
                       5.77448000E-10, -3.42183000E-14, -2.60029000E+04,
                       5.16759000E+00])),
        transport=gas_transport(geom='nonlinear',
                                diam=3.626,
                                well_depth=481.802,
                                rot_relax=1.0))

species(name='CH3O(31)',
        atoms='C:1 H:3 O:1',
        thermo=(NASA([200.00, 1000.00],
                     [ 3.71181000E+00, -2.80463000E-03,  3.76551000E-05,
                      -4.73072000E-08,  1.86588000E-11,  1.29570000E+03,
                       6.57241000E+00]),
                NASA([1000.00, 6000.00],
                     [ 4.75779000E+00,  7.44142000E-03, -2.69705000E-06,
                       4.38091000E-10, -2.63537000E-14,  3.78112000E+02,
                      -1.96680000E+00])),
        transport=gas_transport(geom='nonlinear',
                                diam=3.69,
                                well_depth=417.002,
                                dipole=1.7,
                                rot_relax=2.0))

species(name='C2H6(32)',
        atoms='C:2 H:6',
        thermo=(NASA([200.00, 1000.00],
                     [ 4.29143000E+00, -5.50155000E-03,  5.99438000E-05,
                      -7.08466000E-08,  2.68686000E-11, -1.15222000E+04,
                       2.66679000E+00]),
                NASA([1000.00, 6000.00],
                     [ 4.04666000E+00,  1.53539000E-02, -5.47039000E-06,
                       8.77827000E-10, -5.23168000E-14, -1.24473000E+04,
                      -9.68698000E-01])),
        transport=gas_transport(geom='nonlinear',
                                diam=4.302,
                                well_depth=252.301,
                                rot_relax=1.5))

species(name='C2H5(33)',
        atoms='C:2 H:5',
        thermo=(NASA([200.00, 1000.00],
                     [ 4.24186000E+00, -3.56905000E-03,  4.82667000E-05,
                      -5.85401000E-08,  2.25805000E-11,  1.29690000E+04,
                       4.44704000E+00]),
                NASA([1000.00, 6000.00],
                     [ 4.32196000E+00,  1.23931000E-02, -4.39681000E-06,
                       7.03520000E-10, -4.18435000E-14,  1.21759000E+04,
                       1.71104000E-01])),
        transport=gas_transport(geom='nonlinear',
                                diam=4.302,
                                well_depth=252.301,
                                rot_relax=1.5))

species(name='CH2OH(34)',
        atoms='C:1 H:3 O:1',
        thermo=(NASA([200.00, 1000.00],
                     [ 4.47834000E+00, -1.35070000E-03,  2.78485000E-05,
                      -3.64869000E-08,  1.47907000E-11, -3.50073000E+03,
                       3.30913000E+00]),
                NASA([1000.00, 6000.00],
                     [ 5.09314000E+00,  5.94761000E-03, -2.06497000E-06,
                       3.23008000E-10, -1.88126000E-14, -4.03410000E+03,
                      -1.84691000E+00])),
        transport=gas_transport(geom='nonlinear',
                                diam=3.69,
                                well_depth=417.002,
                                dipole=1.7,
                                rot_relax=2.0))

species(name='CH3CHO(35)',
        atoms='C:2 H:4 O:1',
        thermo=(NASA([200.00, 1000.00],
                     [ 4.72946000E+00, -3.19329000E-03,  4.75349000E-05,
                      -5.74586000E-08,  2.19311000E-11, -2.15729000E+04,
                       4.10302000E+00]),
                NASA([1000.00, 6000.00],
                     [ 5.40411000E+00,  1.17231000E-02, -4.22631000E-06,
                       6.83725000E-10, -4.09849000E-14, -2.25931000E+04,
                      -3.48079000E+00])),
        transport=gas_transport(geom='nonlinear',
                                diam=3.97,
                                well_depth=436.001,
                                rot_relax=2.0))

species(name='OCHO(38)',
        atoms='C:1 H:1 O:2',
        thermo=(NASA([200.00, 1000.00],
                     [ 4.68826000E+00, -4.14872000E-03,  2.55066000E-05,
                      -2.84474000E-08,  1.04423000E-11, -1.69867000E+04,
                       4.28426000E+00]),
                NASA([1000.00, 6000.00],
                     [ 4.14394000E+00,  5.59739000E-03, -1.99794000E-06,
                       3.16179000E-10, -1.85614000E-14, -1.72460000E+04,
                       5.07779000E+00])),
        transport=gas_transport(geom='nonlinear',
                                diam=3.59,
                                well_depth=498.0,
                                rot_relax=2.0))

species(name='HOCHO(40)',
        atoms='C:1 H:2 O:2',
        thermo=(NASA([200.00, 1000.00],
                     [ 3.89836000E+00, -3.55878000E-03,  3.55205000E-05,
                      -4.38500000E-08,  1.71078000E-11, -4.67706000E+04,
                       7.34954000E+00]),
                NASA([1000.00, 6000.00],
                     [ 4.61383000E+00,  6.44964000E-03, -2.29083000E-06,
                       3.67160000E-10, -2.18737000E-14, -4.75148000E+04,
                       8.47884000E-01])),
        transport=gas_transport(geom='nonlinear',
                                diam=3.626,
                                well_depth=481.8,
                                dipole=1.7,
                                rot_relax=1.0))

species(name='CH3O2(45)',
        atoms='C:1 H:3 O:2',
        thermo=(NASA([200.00, 1000.00],
                     [ 4.97170000E+00, -5.29357000E-03,  4.77334000E-05,
                      -5.77066000E-08,  2.22220000E-11, -1.29022000E+02,
                       2.81501000E+00]),
                NASA([1000.00, 6000.00],
                     [ 5.55530000E+00,  9.12236000E-03, -3.23852000E-06,
                       5.18714000E-10, -3.08834000E-14, -1.03569000E+03,
                      -3.99159000E+00])),
        transport=gas_transport(geom='nonlinear',
                                diam=3.69,
                                well_depth=417.0,
                                dipole=1.7,
                                rot_relax=2.0))

species(name='CH3O2H(46)',
        atoms='C:1 H:4 O:2',
        thermo=(NASA([200.00, 1000.00],
                     [ 2.90541000E+00,  1.74995000E-02,  5.28244000E-06,